*SPEF "ieee 1481-1999"
*DESIGN "user_project_wrapper"
*DATE "11:11:11 Fri 11 11, 1111"
*VENDOR "OpenRCX"
*PROGRAM "Parallel Extraction"
*VERSION "1.0"
*DESIGN_FLOW "NAME_SCOPE LOCAL" "PIN_CAP NONE"
*DIVIDER /
*DELIMITER :
*BUS_DELIMITER []
*T_UNIT 1 NS
*C_UNIT 1 PF
*R_UNIT 1 OHM
*L_UNIT 1 HENRY

*NAME_MAP
*1 io_in[0]
*2 io_in[10]
*3 io_in[11]
*4 io_in[12]
*5 io_in[13]
*6 io_in[14]
*7 io_in[15]
*8 io_in[16]
*9 io_in[17]
*10 io_in[18]
*11 io_in[19]
*12 io_in[1]
*13 io_in[20]
*14 io_in[21]
*15 io_in[22]
*16 io_in[23]
*17 io_in[24]
*18 io_in[25]
*19 io_in[26]
*20 io_in[27]
*21 io_in[28]
*22 io_in[29]
*23 io_in[2]
*24 io_in[30]
*25 io_in[31]
*26 io_in[32]
*27 io_in[33]
*28 io_in[34]
*29 io_in[35]
*30 io_in[36]
*31 io_in[37]
*32 io_in[3]
*33 io_in[4]
*34 io_in[5]
*35 io_in[6]
*36 io_in[7]
*37 io_in[8]
*38 io_in[9]
*39 io_oeb[0]
*40 io_oeb[10]
*41 io_oeb[11]
*42 io_oeb[12]
*43 io_oeb[13]
*44 io_oeb[14]
*45 io_oeb[15]
*46 io_oeb[16]
*47 io_oeb[17]
*48 io_oeb[18]
*49 io_oeb[19]
*50 io_oeb[1]
*51 io_oeb[20]
*52 io_oeb[21]
*53 io_oeb[22]
*54 io_oeb[23]
*55 io_oeb[24]
*56 io_oeb[25]
*57 io_oeb[26]
*58 io_oeb[27]
*59 io_oeb[28]
*60 io_oeb[29]
*61 io_oeb[2]
*62 io_oeb[30]
*63 io_oeb[31]
*64 io_oeb[32]
*65 io_oeb[33]
*66 io_oeb[34]
*67 io_oeb[35]
*68 io_oeb[36]
*69 io_oeb[37]
*70 io_oeb[3]
*71 io_oeb[4]
*72 io_oeb[5]
*73 io_oeb[6]
*74 io_oeb[7]
*75 io_oeb[8]
*76 io_oeb[9]
*77 io_out[0]
*78 io_out[10]
*79 io_out[11]
*80 io_out[12]
*81 io_out[13]
*82 io_out[14]
*83 io_out[15]
*84 io_out[16]
*85 io_out[17]
*86 io_out[18]
*87 io_out[19]
*88 io_out[1]
*89 io_out[20]
*90 io_out[21]
*91 io_out[22]
*92 io_out[23]
*93 io_out[24]
*94 io_out[25]
*95 io_out[26]
*96 io_out[27]
*97 io_out[28]
*98 io_out[29]
*99 io_out[2]
*100 io_out[30]
*101 io_out[31]
*102 io_out[32]
*103 io_out[33]
*104 io_out[34]
*105 io_out[35]
*106 io_out[36]
*107 io_out[37]
*108 io_out[3]
*109 io_out[4]
*110 io_out[5]
*111 io_out[6]
*112 io_out[7]
*113 io_out[8]
*114 io_out[9]
*115 la_data_in[0]
*116 la_data_in[10]
*117 la_data_in[11]
*118 la_data_in[12]
*119 la_data_in[13]
*120 la_data_in[14]
*121 la_data_in[15]
*122 la_data_in[16]
*123 la_data_in[17]
*124 la_data_in[18]
*125 la_data_in[19]
*126 la_data_in[1]
*127 la_data_in[20]
*128 la_data_in[21]
*129 la_data_in[22]
*130 la_data_in[23]
*131 la_data_in[24]
*132 la_data_in[25]
*133 la_data_in[26]
*134 la_data_in[27]
*135 la_data_in[28]
*136 la_data_in[29]
*137 la_data_in[2]
*138 la_data_in[30]
*139 la_data_in[31]
*140 la_data_in[32]
*141 la_data_in[33]
*142 la_data_in[34]
*143 la_data_in[35]
*144 la_data_in[36]
*145 la_data_in[37]
*146 la_data_in[38]
*147 la_data_in[39]
*148 la_data_in[3]
*149 la_data_in[40]
*150 la_data_in[41]
*151 la_data_in[42]
*152 la_data_in[43]
*153 la_data_in[44]
*154 la_data_in[45]
*155 la_data_in[46]
*156 la_data_in[47]
*157 la_data_in[48]
*158 la_data_in[49]
*159 la_data_in[4]
*160 la_data_in[50]
*161 la_data_in[51]
*162 la_data_in[52]
*163 la_data_in[53]
*164 la_data_in[54]
*165 la_data_in[55]
*166 la_data_in[56]
*167 la_data_in[57]
*168 la_data_in[58]
*169 la_data_in[59]
*170 la_data_in[5]
*171 la_data_in[60]
*172 la_data_in[61]
*173 la_data_in[62]
*174 la_data_in[63]
*175 la_data_in[6]
*176 la_data_in[7]
*177 la_data_in[8]
*178 la_data_in[9]
*179 la_data_out[0]
*180 la_data_out[10]
*181 la_data_out[11]
*182 la_data_out[12]
*183 la_data_out[13]
*184 la_data_out[14]
*185 la_data_out[15]
*186 la_data_out[16]
*187 la_data_out[17]
*188 la_data_out[18]
*189 la_data_out[19]
*190 la_data_out[1]
*191 la_data_out[20]
*192 la_data_out[21]
*193 la_data_out[22]
*194 la_data_out[23]
*195 la_data_out[24]
*196 la_data_out[25]
*197 la_data_out[26]
*198 la_data_out[27]
*199 la_data_out[28]
*200 la_data_out[29]
*201 la_data_out[2]
*202 la_data_out[30]
*203 la_data_out[31]
*204 la_data_out[32]
*205 la_data_out[33]
*206 la_data_out[34]
*207 la_data_out[35]
*208 la_data_out[36]
*209 la_data_out[37]
*210 la_data_out[38]
*211 la_data_out[39]
*212 la_data_out[3]
*213 la_data_out[40]
*214 la_data_out[41]
*215 la_data_out[42]
*216 la_data_out[43]
*217 la_data_out[44]
*218 la_data_out[45]
*219 la_data_out[46]
*220 la_data_out[47]
*221 la_data_out[48]
*222 la_data_out[49]
*223 la_data_out[4]
*224 la_data_out[50]
*225 la_data_out[51]
*226 la_data_out[52]
*227 la_data_out[53]
*228 la_data_out[54]
*229 la_data_out[55]
*230 la_data_out[56]
*231 la_data_out[57]
*232 la_data_out[58]
*233 la_data_out[59]
*234 la_data_out[5]
*235 la_data_out[60]
*236 la_data_out[61]
*237 la_data_out[62]
*238 la_data_out[63]
*239 la_data_out[6]
*240 la_data_out[7]
*241 la_data_out[8]
*242 la_data_out[9]
*243 la_oenb[0]
*244 la_oenb[10]
*245 la_oenb[11]
*246 la_oenb[12]
*247 la_oenb[13]
*248 la_oenb[14]
*249 la_oenb[15]
*250 la_oenb[16]
*251 la_oenb[17]
*252 la_oenb[18]
*253 la_oenb[19]
*254 la_oenb[1]
*255 la_oenb[20]
*256 la_oenb[21]
*257 la_oenb[22]
*258 la_oenb[23]
*259 la_oenb[24]
*260 la_oenb[25]
*261 la_oenb[26]
*262 la_oenb[27]
*263 la_oenb[28]
*264 la_oenb[29]
*265 la_oenb[2]
*266 la_oenb[30]
*267 la_oenb[31]
*268 la_oenb[32]
*269 la_oenb[33]
*270 la_oenb[34]
*271 la_oenb[35]
*272 la_oenb[36]
*273 la_oenb[37]
*274 la_oenb[38]
*275 la_oenb[39]
*276 la_oenb[3]
*277 la_oenb[40]
*278 la_oenb[41]
*279 la_oenb[42]
*280 la_oenb[43]
*281 la_oenb[44]
*282 la_oenb[45]
*283 la_oenb[46]
*284 la_oenb[47]
*285 la_oenb[48]
*286 la_oenb[49]
*287 la_oenb[4]
*288 la_oenb[50]
*289 la_oenb[51]
*290 la_oenb[52]
*291 la_oenb[53]
*292 la_oenb[54]
*293 la_oenb[55]
*294 la_oenb[56]
*295 la_oenb[57]
*296 la_oenb[58]
*297 la_oenb[59]
*298 la_oenb[5]
*299 la_oenb[60]
*300 la_oenb[61]
*301 la_oenb[62]
*302 la_oenb[63]
*303 la_oenb[6]
*304 la_oenb[7]
*305 la_oenb[8]
*306 la_oenb[9]
*307 user_clock2
*308 user_irq[0]
*309 user_irq[1]
*310 user_irq[2]
*313 wb_clk_i
*314 wb_rst_i
*315 wbs_ack_o
*316 wbs_adr_i[0]
*317 wbs_adr_i[10]
*318 wbs_adr_i[11]
*319 wbs_adr_i[12]
*320 wbs_adr_i[13]
*321 wbs_adr_i[14]
*322 wbs_adr_i[15]
*323 wbs_adr_i[16]
*324 wbs_adr_i[17]
*325 wbs_adr_i[18]
*326 wbs_adr_i[19]
*327 wbs_adr_i[1]
*328 wbs_adr_i[20]
*329 wbs_adr_i[21]
*330 wbs_adr_i[22]
*331 wbs_adr_i[23]
*332 wbs_adr_i[24]
*333 wbs_adr_i[25]
*334 wbs_adr_i[26]
*335 wbs_adr_i[27]
*336 wbs_adr_i[28]
*337 wbs_adr_i[29]
*338 wbs_adr_i[2]
*339 wbs_adr_i[30]
*340 wbs_adr_i[31]
*341 wbs_adr_i[3]
*342 wbs_adr_i[4]
*343 wbs_adr_i[5]
*344 wbs_adr_i[6]
*345 wbs_adr_i[7]
*346 wbs_adr_i[8]
*347 wbs_adr_i[9]
*348 wbs_cyc_i
*349 wbs_dat_i[0]
*350 wbs_dat_i[10]
*351 wbs_dat_i[11]
*352 wbs_dat_i[12]
*353 wbs_dat_i[13]
*354 wbs_dat_i[14]
*355 wbs_dat_i[15]
*356 wbs_dat_i[16]
*357 wbs_dat_i[17]
*358 wbs_dat_i[18]
*359 wbs_dat_i[19]
*360 wbs_dat_i[1]
*361 wbs_dat_i[20]
*362 wbs_dat_i[21]
*363 wbs_dat_i[22]
*364 wbs_dat_i[23]
*365 wbs_dat_i[24]
*366 wbs_dat_i[25]
*367 wbs_dat_i[26]
*368 wbs_dat_i[27]
*369 wbs_dat_i[28]
*370 wbs_dat_i[29]
*371 wbs_dat_i[2]
*372 wbs_dat_i[30]
*373 wbs_dat_i[31]
*374 wbs_dat_i[3]
*375 wbs_dat_i[4]
*376 wbs_dat_i[5]
*377 wbs_dat_i[6]
*378 wbs_dat_i[7]
*379 wbs_dat_i[8]
*380 wbs_dat_i[9]
*381 wbs_dat_o[0]
*382 wbs_dat_o[10]
*383 wbs_dat_o[11]
*384 wbs_dat_o[12]
*385 wbs_dat_o[13]
*386 wbs_dat_o[14]
*387 wbs_dat_o[15]
*388 wbs_dat_o[16]
*389 wbs_dat_o[17]
*390 wbs_dat_o[18]
*391 wbs_dat_o[19]
*392 wbs_dat_o[1]
*393 wbs_dat_o[20]
*394 wbs_dat_o[21]
*395 wbs_dat_o[22]
*396 wbs_dat_o[23]
*397 wbs_dat_o[24]
*398 wbs_dat_o[25]
*399 wbs_dat_o[26]
*400 wbs_dat_o[27]
*401 wbs_dat_o[28]
*402 wbs_dat_o[29]
*403 wbs_dat_o[2]
*404 wbs_dat_o[30]
*405 wbs_dat_o[31]
*406 wbs_dat_o[3]
*407 wbs_dat_o[4]
*408 wbs_dat_o[5]
*409 wbs_dat_o[6]
*410 wbs_dat_o[7]
*411 wbs_dat_o[8]
*412 wbs_dat_o[9]
*413 wbs_sel_i[0]
*414 wbs_sel_i[1]
*415 wbs_sel_i[2]
*416 wbs_sel_i[3]
*417 wbs_stb_i
*418 wbs_we_i
*419 mprj

*PORTS
io_in[0] I
io_in[10] I
io_in[11] I
io_in[12] I
io_in[13] I
io_in[14] I
io_in[15] I
io_in[16] I
io_in[17] I
io_in[18] I
io_in[19] I
io_in[1] I
io_in[20] I
io_in[21] I
io_in[22] I
io_in[23] I
io_in[24] I
io_in[25] I
io_in[26] I
io_in[27] I
io_in[28] I
io_in[29] I
io_in[2] I
io_in[30] I
io_in[31] I
io_in[32] I
io_in[33] I
io_in[34] I
io_in[35] I
io_in[36] I
io_in[37] I
io_in[3] I
io_in[4] I
io_in[5] I
io_in[6] I
io_in[7] I
io_in[8] I
io_in[9] I
io_oeb[0] O
io_oeb[10] O
io_oeb[11] O
io_oeb[12] O
io_oeb[13] O
io_oeb[14] O
io_oeb[15] O
io_oeb[16] O
io_oeb[17] O
io_oeb[18] O
io_oeb[19] O
io_oeb[1] O
io_oeb[20] O
io_oeb[21] O
io_oeb[22] O
io_oeb[23] O
io_oeb[24] O
io_oeb[25] O
io_oeb[26] O
io_oeb[27] O
io_oeb[28] O
io_oeb[29] O
io_oeb[2] O
io_oeb[30] O
io_oeb[31] O
io_oeb[32] O
io_oeb[33] O
io_oeb[34] O
io_oeb[35] O
io_oeb[36] O
io_oeb[37] O
io_oeb[3] O
io_oeb[4] O
io_oeb[5] O
io_oeb[6] O
io_oeb[7] O
io_oeb[8] O
io_oeb[9] O
io_out[0] O
io_out[10] O
io_out[11] O
io_out[12] O
io_out[13] O
io_out[14] O
io_out[15] O
io_out[16] O
io_out[17] O
io_out[18] O
io_out[19] O
io_out[1] O
io_out[20] O
io_out[21] O
io_out[22] O
io_out[23] O
io_out[24] O
io_out[25] O
io_out[26] O
io_out[27] O
io_out[28] O
io_out[29] O
io_out[2] O
io_out[30] O
io_out[31] O
io_out[32] O
io_out[33] O
io_out[34] O
io_out[35] O
io_out[36] O
io_out[37] O
io_out[3] O
io_out[4] O
io_out[5] O
io_out[6] O
io_out[7] O
io_out[8] O
io_out[9] O
la_data_in[0] I
la_data_in[10] I
la_data_in[11] I
la_data_in[12] I
la_data_in[13] I
la_data_in[14] I
la_data_in[15] I
la_data_in[16] I
la_data_in[17] I
la_data_in[18] I
la_data_in[19] I
la_data_in[1] I
la_data_in[20] I
la_data_in[21] I
la_data_in[22] I
la_data_in[23] I
la_data_in[24] I
la_data_in[25] I
la_data_in[26] I
la_data_in[27] I
la_data_in[28] I
la_data_in[29] I
la_data_in[2] I
la_data_in[30] I
la_data_in[31] I
la_data_in[32] I
la_data_in[33] I
la_data_in[34] I
la_data_in[35] I
la_data_in[36] I
la_data_in[37] I
la_data_in[38] I
la_data_in[39] I
la_data_in[3] I
la_data_in[40] I
la_data_in[41] I
la_data_in[42] I
la_data_in[43] I
la_data_in[44] I
la_data_in[45] I
la_data_in[46] I
la_data_in[47] I
la_data_in[48] I
la_data_in[49] I
la_data_in[4] I
la_data_in[50] I
la_data_in[51] I
la_data_in[52] I
la_data_in[53] I
la_data_in[54] I
la_data_in[55] I
la_data_in[56] I
la_data_in[57] I
la_data_in[58] I
la_data_in[59] I
la_data_in[5] I
la_data_in[60] I
la_data_in[61] I
la_data_in[62] I
la_data_in[63] I
la_data_in[6] I
la_data_in[7] I
la_data_in[8] I
la_data_in[9] I
la_data_out[0] O
la_data_out[10] O
la_data_out[11] O
la_data_out[12] O
la_data_out[13] O
la_data_out[14] O
la_data_out[15] O
la_data_out[16] O
la_data_out[17] O
la_data_out[18] O
la_data_out[19] O
la_data_out[1] O
la_data_out[20] O
la_data_out[21] O
la_data_out[22] O
la_data_out[23] O
la_data_out[24] O
la_data_out[25] O
la_data_out[26] O
la_data_out[27] O
la_data_out[28] O
la_data_out[29] O
la_data_out[2] O
la_data_out[30] O
la_data_out[31] O
la_data_out[32] O
la_data_out[33] O
la_data_out[34] O
la_data_out[35] O
la_data_out[36] O
la_data_out[37] O
la_data_out[38] O
la_data_out[39] O
la_data_out[3] O
la_data_out[40] O
la_data_out[41] O
la_data_out[42] O
la_data_out[43] O
la_data_out[44] O
la_data_out[45] O
la_data_out[46] O
la_data_out[47] O
la_data_out[48] O
la_data_out[49] O
la_data_out[4] O
la_data_out[50] O
la_data_out[51] O
la_data_out[52] O
la_data_out[53] O
la_data_out[54] O
la_data_out[55] O
la_data_out[56] O
la_data_out[57] O
la_data_out[58] O
la_data_out[59] O
la_data_out[5] O
la_data_out[60] O
la_data_out[61] O
la_data_out[62] O
la_data_out[63] O
la_data_out[6] O
la_data_out[7] O
la_data_out[8] O
la_data_out[9] O
la_oenb[0] I
la_oenb[10] I
la_oenb[11] I
la_oenb[12] I
la_oenb[13] I
la_oenb[14] I
la_oenb[15] I
la_oenb[16] I
la_oenb[17] I
la_oenb[18] I
la_oenb[19] I
la_oenb[1] I
la_oenb[20] I
la_oenb[21] I
la_oenb[22] I
la_oenb[23] I
la_oenb[24] I
la_oenb[25] I
la_oenb[26] I
la_oenb[27] I
la_oenb[28] I
la_oenb[29] I
la_oenb[2] I
la_oenb[30] I
la_oenb[31] I
la_oenb[32] I
la_oenb[33] I
la_oenb[34] I
la_oenb[35] I
la_oenb[36] I
la_oenb[37] I
la_oenb[38] I
la_oenb[39] I
la_oenb[3] I
la_oenb[40] I
la_oenb[41] I
la_oenb[42] I
la_oenb[43] I
la_oenb[44] I
la_oenb[45] I
la_oenb[46] I
la_oenb[47] I
la_oenb[48] I
la_oenb[49] I
la_oenb[4] I
la_oenb[50] I
la_oenb[51] I
la_oenb[52] I
la_oenb[53] I
la_oenb[54] I
la_oenb[55] I
la_oenb[56] I
la_oenb[57] I
la_oenb[58] I
la_oenb[59] I
la_oenb[5] I
la_oenb[60] I
la_oenb[61] I
la_oenb[62] I
la_oenb[63] I
la_oenb[6] I
la_oenb[7] I
la_oenb[8] I
la_oenb[9] I
user_clock2 I
user_irq[0] O
user_irq[1] O
user_irq[2] O
wb_clk_i I
wb_rst_i I
wbs_ack_o O
wbs_adr_i[0] I
wbs_adr_i[10] I
wbs_adr_i[11] I
wbs_adr_i[12] I
wbs_adr_i[13] I
wbs_adr_i[14] I
wbs_adr_i[15] I
wbs_adr_i[16] I
wbs_adr_i[17] I
wbs_adr_i[18] I
wbs_adr_i[19] I
wbs_adr_i[1] I
wbs_adr_i[20] I
wbs_adr_i[21] I
wbs_adr_i[22] I
wbs_adr_i[23] I
wbs_adr_i[24] I
wbs_adr_i[25] I
wbs_adr_i[26] I
wbs_adr_i[27] I
wbs_adr_i[28] I
wbs_adr_i[29] I
wbs_adr_i[2] I
wbs_adr_i[30] I
wbs_adr_i[31] I
wbs_adr_i[3] I
wbs_adr_i[4] I
wbs_adr_i[5] I
wbs_adr_i[6] I
wbs_adr_i[7] I
wbs_adr_i[8] I
wbs_adr_i[9] I
wbs_cyc_i I
wbs_dat_i[0] I
wbs_dat_i[10] I
wbs_dat_i[11] I
wbs_dat_i[12] I
wbs_dat_i[13] I
wbs_dat_i[14] I
wbs_dat_i[15] I
wbs_dat_i[16] I
wbs_dat_i[17] I
wbs_dat_i[18] I
wbs_dat_i[19] I
wbs_dat_i[1] I
wbs_dat_i[20] I
wbs_dat_i[21] I
wbs_dat_i[22] I
wbs_dat_i[23] I
wbs_dat_i[24] I
wbs_dat_i[25] I
wbs_dat_i[26] I
wbs_dat_i[27] I
wbs_dat_i[28] I
wbs_dat_i[29] I
wbs_dat_i[2] I
wbs_dat_i[30] I
wbs_dat_i[31] I
wbs_dat_i[3] I
wbs_dat_i[4] I
wbs_dat_i[5] I
wbs_dat_i[6] I
wbs_dat_i[7] I
wbs_dat_i[8] I
wbs_dat_i[9] I
wbs_dat_o[0] O
wbs_dat_o[10] O
wbs_dat_o[11] O
wbs_dat_o[12] O
wbs_dat_o[13] O
wbs_dat_o[14] O
wbs_dat_o[15] O
wbs_dat_o[16] O
wbs_dat_o[17] O
wbs_dat_o[18] O
wbs_dat_o[19] O
wbs_dat_o[1] O
wbs_dat_o[20] O
wbs_dat_o[21] O
wbs_dat_o[22] O
wbs_dat_o[23] O
wbs_dat_o[24] O
wbs_dat_o[25] O
wbs_dat_o[26] O
wbs_dat_o[27] O
wbs_dat_o[28] O
wbs_dat_o[29] O
wbs_dat_o[2] O
wbs_dat_o[30] O
wbs_dat_o[31] O
wbs_dat_o[3] O
wbs_dat_o[4] O
wbs_dat_o[5] O
wbs_dat_o[6] O
wbs_dat_o[7] O
wbs_dat_o[8] O
wbs_dat_o[9] O
wbs_sel_i[0] I
wbs_sel_i[1] I
wbs_sel_i[2] I
wbs_sel_i[3] I
wbs_stb_i I
wbs_we_i I

*D_NET *2 0.0776477
*CONN
*P io_in[10] I
*I *419:io_in[5] I *D user_proj_example
*CAP
1 io_in[10] 0.00553111
2 *419:io_in[5] 0.000799664
3 *2:9 0.0332927
4 *2:7 0.0380242
*RES
1 io_in[10] *2:7 43.45 
2 *2:7 *2:9 235.676 
3 *2:9 *419:io_in[5] 10.01 
*END

*D_NET *3 0.183989
*CONN
*P io_in[11] I
*I *419:io_in[6] I *D user_proj_example
*CAP
1 io_in[11] 0.00103984
2 *419:io_in[6] 0.00533193
3 *3:9 0.00626092
4 *3:7 0.00196883
5 *3:9 *4:9 0.0224802
6 *3:9 *6:9 0.0958513
7 *3:9 *38:9 0.0510555
*RES
1 io_in[11] *3:7 11.378 
2 *3:7 *3:9 230.204 
3 *3:9 *419:io_in[6] 42.082 
*END

*D_NET *4 0.102954
*CONN
*P io_in[12] I
*I *419:io_in[7] I *D user_proj_example
*CAP
1 io_in[12] 0.000984899
2 *419:io_in[7] 0.00540058
3 *4:9 0.0220481
4 *4:7 0.0176324
5 *4:9 *6:9 0.00798135
6 *4:9 *38:9 0.0264262
7 *3:9 *4:9 0.0224802
*RES
1 io_in[12] *4:7 11.074 
2 *4:7 *4:9 224.732 
3 *4:9 *419:io_in[7] 42.386 
*END

*D_NET *5 0.296296
*CONN
*P io_in[13] I
*I *419:io_in[8] I *D user_proj_example
*CAP
1 io_in[13] 0.113197
2 *419:io_in[8] 0.000283695
3 *5:9 0.0349508
4 *5:7 0.0346671
5 *5:5 0.113197
*RES
1 io_in[13] *5:5 806.246 
2 *5:5 *5:7 4.5 
3 *5:7 *5:9 251.484 
4 *5:9 *419:io_in[8] 6.514 
*END

*D_NET *6 0.398576
*CONN
*P io_in[14] I
*I *419:io_in[9] I *D user_proj_example
*CAP
1 io_in[14] 0.0012482
2 *419:io_in[9] 2.47991e-05
3 *6:13 0.0988668
4 *6:11 0.098842
5 *6:9 0.0394037
6 *6:7 0.0406519
7 *6:9 *35:9 0.0074879
8 *6:9 *38:9 0.00821843
9 *3:9 *6:9 0.0958513
10 *4:9 *6:9 0.00798135
*RES
1 io_in[14] *6:7 11.53 
2 *6:7 *6:9 448.522 
3 *6:9 *6:11 4.5 
4 *6:11 *6:13 333.441 
5 *6:13 *419:io_in[9] 9.12214 
*END

*D_NET *7 0.345277
*CONN
*P io_in[15] I
*I *419:io_in[10] I *D user_proj_example
*CAP
1 io_in[15] 0.00107705
2 *419:io_in[10] 0.000301954
3 *7:15 0.0980994
4 *7:13 0.0977975
5 *7:11 0.073462
6 *7:9 0.074539
*RES
1 io_in[15] *7:9 16.486 
2 *7:9 *7:11 532.204 
3 *7:11 *7:13 4.5 
4 *7:13 *7:15 330.323 
5 *7:15 *419:io_in[10] 11.1144 
*END

*D_NET *8 0.336342
*CONN
*P io_in[16] I
*I *419:io_in[11] I *D user_proj_example
*CAP
1 io_in[16] 0.00125242
2 *419:io_in[11] 0.000281316
3 *8:17 0.0867478
4 *8:15 0.0864665
5 *8:13 0.0800724
6 *8:11 0.0813249
7 *8:11 *92:23 0.000197064
*RES
1 io_in[16] *8:11 17.93 
2 *8:11 *8:13 580.084 
3 *8:13 *8:15 4.5 
4 *8:15 *8:17 292.141 
5 *8:17 *419:io_in[11] 10.9624 
*END

*D_NET *9 0.32727
*CONN
*P io_in[17] I
*I *419:io_in[12] I *D user_proj_example
*CAP
1 io_in[17] 0.00118016
2 *419:io_in[12] 0.000262737
3 *9:17 0.0757338
4 *9:15 0.075471
5 *9:13 0.0866902
6 *9:11 0.0878704
7 *9:11 *92:23 6.20697e-05
*RES
1 io_in[17] *9:11 17.018 
2 *9:11 *9:13 627.964 
3 *9:13 *9:15 4.5 
4 *9:15 *9:17 254.914 
5 *9:17 *419:io_in[12] 10.8104 
*END

*D_NET *10 0.318437
*CONN
*P io_in[18] I
*I *419:io_in[13] I *D user_proj_example
*CAP
1 io_in[18] 0.00128855
2 *419:io_in[13] 0.000242099
3 *10:17 0.0644896
4 *10:15 0.0642475
5 *10:13 0.093308
6 *10:11 0.0945966
7 *10:11 *92:23 0.000264561
*RES
1 io_in[18] *10:11 18.386 
2 *10:11 *10:13 675.844 
3 *10:13 *10:15 4.5 
4 *10:15 *10:17 216.732 
5 *10:17 *419:io_in[13] 10.6584 
*END

*D_NET *11 0.317398
*CONN
*P io_in[19] I
*I *419:io_in[14] I *D user_proj_example
*CAP
1 io_in[19] 0.00121629
2 *419:io_in[14] 0.000221462
3 *11:17 0.0574921
4 *11:15 0.0572706
5 *11:13 0.0999258
6 *11:11 0.101142
7 *11:11 *92:23 0.000129567
*RES
1 io_in[19] *11:11 17.474 
2 *11:11 *11:13 723.724 
3 *11:13 *11:15 4.5 
4 *11:15 *11:17 179.505 
5 *11:17 *419:io_in[14] 10.5064 
*END

*D_NET *13 0.430706
*CONN
*P io_in[20] I
*I *419:io_in[15] I *D user_proj_example
*CAP
1 io_in[20] 0.00110268
2 *419:io_in[15] 0.000200825
3 *13:15 0.107696
4 *13:13 0.107496
5 *13:11 0.106554
6 *13:9 0.107657
*RES
1 io_in[20] *13:9 16.486 
2 *13:9 *13:11 771.604 
3 *13:11 *13:13 4.5 
4 *13:13 *13:15 142.277 
5 *13:15 *419:io_in[15] 10.3544 
*END

*D_NET *34 0.0851485
*CONN
*P io_in[5] I
*I *419:io_in[0] I *D user_proj_example
*CAP
1 io_in[5] 0.00554478
2 *419:io_in[0] 0.000758366
3 *34:9 0.0370294
4 *34:7 0.0418159
*RES
1 io_in[5] *34:7 43.45 
2 *34:7 *34:9 263.036 
3 *34:9 *419:io_in[0] 10.01 
*END

*D_NET *35 0.111071
*CONN
*P io_in[6] I
*I *419:io_in[1] I *D user_proj_example
*CAP
1 io_in[6] 0.00103986
2 *419:io_in[1] 0.00522228
3 *35:9 0.0341641
4 *35:7 0.0299817
5 *35:9 *38:9 0.0331756
6 *6:9 *35:9 0.0074879
*RES
1 io_in[6] *35:7 11.378 
2 *35:7 *35:9 257.564 
3 *35:9 *419:io_in[1] 42.082 
*END

*D_NET *36 0.0824008
*CONN
*P io_in[7] I
*I *419:io_in[2] I *D user_proj_example
*CAP
1 io_in[7] 0.00492568
2 *419:io_in[2] 0.00140508
3 *36:9 0.0362747
4 *36:7 0.0397953
*RES
1 io_in[7] *36:7 38.89 
2 *36:7 *36:9 252.092 
3 *36:9 *419:io_in[2] 14.57 
*END

*D_NET *37 0.0808732
*CONN
*P io_in[8] I
*I *419:io_in[3] I *D user_proj_example
*CAP
1 io_in[8] 0.00461613
2 *419:io_in[3] 0.00174226
3 *37:9 0.0358205
4 *37:7 0.0386944
*RES
1 io_in[8] *37:7 36.61 
2 *37:7 *37:9 246.62 
3 *37:9 *419:io_in[3] 16.85 
*END

*D_NET *38 0.157404
*CONN
*P io_in[9] I
*I *419:io_in[4] I *D user_proj_example
*CAP
1 io_in[9] 0.00120531
2 *419:io_in[4] 0.00531851
3 *38:9 0.0180587
4 *38:7 0.0139455
5 *3:9 *38:9 0.0510555
6 *4:9 *38:9 0.0264262
7 *6:9 *38:9 0.00821843
8 *35:9 *38:9 0.0331756
*RES
1 io_in[9] *38:7 11.226 
2 *38:7 *38:9 241.148 
3 *38:9 *419:io_in[4] 42.234 
*END

*D_NET *90 0.349038
*CONN
*P io_out[21] O
*I *419:io_oeb[0] O *D user_proj_example
*I *419:io_out[0] O *D user_proj_example
*CAP
1 io_out[21] 0.00120424
2 *419:io_oeb[0] 0.00638333
3 *419:io_out[0] 0.00352521
4 *90:33 0.103929
5 *90:31 0.102724
6 *90:29 0.0641536
7 *90:27 0.0670117
8 io_out[21] *92:23 0.000107066
*RES
1 *419:io_out[0] *419:io_oeb[0] 33.168 
2 *419:io_oeb[0] *90:27 18.0642 
3 *90:27 *90:29 217.718 
4 *90:29 *90:31 4.5 
5 *90:31 *90:33 744.244 
6 *90:33 io_out[21] 17.322 
*END

*D_NET *91 0.783729
*CONN
*P io_out[22] O
*I *419:io_oeb[1] O *D user_proj_example
*I *419:io_out[1] O *D user_proj_example
*CAP
1 io_out[22] 0.000999175
2 *419:io_oeb[1] 0.000304538
3 *419:io_out[1] 0.00322068
4 *91:23 0.046002
5 *91:21 0.0450028
6 *91:19 0.0532598
7 *91:9 0.056785
8 *91:19 *92:9 0.00803075
9 *91:19 *92:19 0.25407
10 *91:19 *93:9 0.00190058
11 *91:19 *93:19 0.0525239
12 *91:23 *92:23 0.26163
*RES
1 *419:io_out[1] *91:9 26.502 
2 *91:9 *419:io_oeb[1] 6.666 
3 *91:9 *91:19 687.116 
4 *91:19 *91:21 4.5 
5 *91:21 *91:23 631.18 
6 *91:23 io_out[22] 11.378 
*END

*D_NET *92 0.761384
*CONN
*P io_out[23] O
*I *419:io_oeb[2] O *D user_proj_example
*I *419:io_out[2] O *D user_proj_example
*CAP
1 io_out[23] 0.00102104
2 *419:io_oeb[2] 0.000339116
3 *419:io_out[2] 0.00179508
4 *92:23 0.0584402
5 *92:21 0.0574192
6 *92:19 0.0459861
7 *92:9 0.0481203
8 *92:19 *93:9 0.000734556
9 *92:19 *93:19 0.00145362
10 *92:19 *94:9 0.000950289
11 *92:19 *94:19 0.0206338
12 io_out[21] *92:23 0.000107066
13 *8:11 *92:23 0.000197064
14 *9:11 *92:23 6.20697e-05
15 *10:11 *92:23 0.000264561
16 *11:11 *92:23 0.000129567
17 *91:19 *92:9 0.00803075
18 *91:19 *92:19 0.25407
19 *91:23 *92:23 0.26163
*RES
1 *419:io_out[2] *92:9 26.654 
2 *92:9 *419:io_oeb[2] 6.818 
3 *92:9 *92:19 627.684 
4 *92:19 *92:21 4.5 
5 *92:21 *92:23 721.164 
6 *92:23 io_out[23] 11.53 
*END

*D_NET *93 0.554726
*CONN
*P io_out[24] O
*I *419:io_oeb[3] O *D user_proj_example
*I *419:io_out[3] O *D user_proj_example
*CAP
1 io_out[24] 0.107446
2 *419:io_oeb[3] 0.000378403
3 *419:io_out[3] 0.00300761
4 *93:21 0.107446
5 *93:19 0.0449908
6 *93:9 0.0483768
7 *93:19 *94:9 0.00823186
8 *93:19 *94:19 0.178237
9 *91:19 *93:9 0.00190058
10 *91:19 *93:19 0.0525239
11 *92:19 *93:9 0.000734556
12 *92:19 *93:19 0.00145362
*RES
1 *419:io_out[3] *93:9 26.502 
2 *93:9 *419:io_oeb[3] 6.666 
3 *93:9 *93:19 544.692 
4 *93:19 *93:21 4.5 
5 *93:21 io_out[24] 765.662 
*END

*D_NET *94 0.580703
*CONN
*P io_out[25] O
*I *419:io_oeb[4] O *D user_proj_example
*I *419:io_out[4] O *D user_proj_example
*CAP
1 io_out[25] 0.107487
2 *419:io_oeb[4] 0.000350872
3 *419:io_out[4] 0.00177626
4 *94:21 0.107487
5 *94:19 0.00774169
6 *94:9 0.00986882
7 *94:19 *95:9 0.00829356
8 *94:19 *95:19 0.129645
9 *92:19 *94:9 0.000950289
10 *92:19 *94:19 0.0206338
11 *93:19 *94:9 0.00823186
12 *93:19 *94:19 0.178237
*RES
1 *419:io_out[4] *94:9 26.654 
2 *94:9 *419:io_oeb[4] 6.818 
3 *94:9 *94:19 427.956 
4 *94:19 *94:21 4.5 
5 *94:21 io_out[25] 765.814 
*END

*D_NET *95 0.461384
*CONN
*P io_out[26] O
*I *419:io_oeb[5] O *D user_proj_example
*I *419:io_out[5] O *D user_proj_example
*CAP
1 io_out[26] 0.107537
2 *419:io_oeb[5] 0.000386899
3 *419:io_out[5] 0.00182621
4 *95:21 0.107537
5 *95:19 0.00736083
6 *95:9 0.00957394
7 *95:19 *96:9 0.00823186
8 *95:19 *96:19 0.0809925
9 *94:19 *95:9 0.00829356
10 *94:19 *95:19 0.129645
*RES
1 *419:io_out[5] *95:9 26.806 
2 *95:9 *419:io_oeb[5] 6.97 
3 *95:9 *95:19 311.22 
4 *95:19 *95:21 4.5 
5 *95:21 io_out[26] 765.966 
*END

*D_NET *96 0.363699
*CONN
*P io_out[27] O
*I *419:io_oeb[6] O *D user_proj_example
*I *419:io_out[6] O *D user_proj_example
*CAP
1 io_out[27] 0.107571
2 *419:io_oeb[6] 0.000421219
3 *419:io_out[6] 0.0018466
4 *96:21 0.107571
5 *96:19 0.00708549
6 *96:9 0.00935332
7 *96:19 *97:9 0.0082338
8 *96:19 *97:19 0.0323917
9 *95:19 *96:9 0.00823186
10 *95:19 *96:19 0.0809925
*RES
1 *419:io_out[6] *96:9 26.958 
2 *96:9 *419:io_oeb[6] 7.122 
3 *96:9 *96:19 194.484 
4 *96:19 *96:21 4.5 
5 *96:21 io_out[27] 766.118 
*END

*D_NET *97 0.271533
*CONN
*P io_out[28] O
*I *419:io_oeb[7] O *D user_proj_example
*I *419:io_out[7] O *D user_proj_example
*CAP
1 io_out[28] 0.107605
2 *419:io_oeb[7] 0.000524366
3 *419:io_out[7] 0.00187898
4 *97:21 0.107605
5 *97:19 0.00544515
6 *97:9 0.00784849
7 *96:19 *97:9 0.0082338
8 *96:19 *97:19 0.0323917
*RES
1 *419:io_out[7] *97:9 27.11 
2 *97:9 *419:io_oeb[7] 7.274 
3 *97:9 *97:19 77.748 
4 *97:19 *97:21 4.5 
5 *97:21 io_out[28] 766.27 
*END

*D_NET *98 0.0377876
*CONN
*P io_out[29] O
*I *419:io_oeb[8] O *D user_proj_example
*I *419:io_out[8] O *D user_proj_example
*CAP
1 io_out[29] 0.0005863
2 *419:io_oeb[8] 0.000283695
3 *419:io_out[8] 0.000352448
4 *98:25 0.0116457
5 *98:23 0.0111281
6 *98:9 0.00689572
7 *98:7 0.00689572
*RES
1 *419:io_out[8] *98:7 6.514 
2 *98:7 *98:9 47.804 
3 *98:9 *419:io_oeb[8] 6.514 
4 *419:io_out[8] *98:23 4.956 
5 *98:23 *98:25 80.484 
6 *98:25 io_out[29] 8.642 
*END

*D_NET *313 0.100409
*CONN
*P wb_clk_i I
*I *419:wb_clk_i I *D user_proj_example
*CAP
1 wb_clk_i 0.000140838
2 *419:wb_clk_i 0.000673028
3 *313:13 0.0134818
4 *313:11 0.0129496
5 *313:13 *314:13 0.0731638
*RES
1 wb_clk_i *313:11 5.602 
2 *313:11 *313:13 178.372 
3 *313:13 *419:wb_clk_i 9.022 
*END

*D_NET *314 0.206003
*CONN
*P wb_rst_i I
*I *419:wb_rst_i I *D user_proj_example
*CAP
1 wb_rst_i 0.000118969
2 *419:wb_rst_i 0.000725813
3 *314:13 0.0663006
4 *314:11 0.0656937
5 *313:13 *314:13 0.0731638
*RES
1 wb_rst_i *314:11 5.45 
2 *314:11 *314:13 555.18 
3 *314:13 *419:wb_rst_i 9.478 
*END
