*SPEF "ieee 1481-1999"
*DESIGN "user_proj_example"
*DATE "11:11:11 Fri 11 11, 1111"
*VENDOR "OpenRCX"
*PROGRAM "Parallel Extraction"
*VERSION "1.0"
*DESIGN_FLOW "NAME_SCOPE LOCAL" "PIN_CAP NONE"
*DIVIDER /
*DELIMITER :
*BUS_DELIMITER []
*T_UNIT 1 NS
*C_UNIT 1 PF
*R_UNIT 1 OHM
*L_UNIT 1 HENRY

*NAME_MAP
*1 io_in[0]
*2 io_in[10]
*3 io_in[11]
*4 io_in[12]
*5 io_in[13]
*6 io_in[14]
*7 io_in[15]
*8 io_in[1]
*9 io_in[2]
*10 io_in[3]
*11 io_in[4]
*12 io_in[5]
*13 io_in[6]
*14 io_in[7]
*15 io_in[8]
*16 io_in[9]
*17 net38
*18 net39
*19 net40
*20 net41
*21 net42
*22 net43
*23 net44
*24 net45
*25 net46
*26 io_out[0]
*27 io_out[1]
*28 io_out[2]
*29 io_out[3]
*30 io_out[4]
*31 io_out[5]
*32 io_out[6]
*33 io_out[7]
*34 io_out[8]
*37 wb_clk_i
*38 wb_rst_i
*39 _000_
*40 _001_
*41 _002_
*42 _003_
*43 _004_
*44 _005_
*45 _006_
*46 _007_
*47 _008_
*48 _009_
*49 _010_
*50 _011_
*51 _012_
*52 _013_
*53 _014_
*54 _015_
*55 _016_
*56 _017_
*57 _018_
*58 _019_
*59 _020_
*60 _021_
*61 _022_
*62 _023_
*63 _024_
*64 _025_
*65 _026_
*66 _027_
*67 _028_
*68 _029_
*69 _030_
*70 _031_
*71 _032_
*72 _033_
*73 _034_
*74 _035_
*75 _036_
*76 _037_
*77 _038_
*78 _039_
*79 _040_
*80 _041_
*81 _042_
*82 _043_
*83 _044_
*84 _045_
*85 _046_
*86 _047_
*87 _048_
*88 _049_
*89 _050_
*90 _051_
*91 _052_
*92 _053_
*93 _054_
*94 _055_
*95 _056_
*96 _057_
*97 _058_
*98 _059_
*99 _060_
*100 _061_
*101 _062_
*102 _063_
*103 _064_
*104 _065_
*105 _066_
*106 _067_
*107 _068_
*108 _069_
*109 _070_
*110 _071_
*111 _072_
*112 _073_
*113 _074_
*114 _075_
*115 _076_
*116 _077_
*117 _078_
*118 _079_
*119 _080_
*120 _081_
*121 _082_
*122 _083_
*123 _084_
*124 _085_
*125 _086_
*126 _087_
*127 _088_
*128 _089_
*129 _090_
*130 _091_
*131 _092_
*132 _093_
*133 _094_
*134 _095_
*135 _096_
*136 _097_
*137 _098_
*138 _099_
*139 _100_
*140 _101_
*141 _102_
*142 _103_
*143 _104_
*144 _105_
*145 _106_
*146 _107_
*147 _108_
*148 _109_
*149 _110_
*150 _111_
*151 _112_
*152 _113_
*153 _114_
*154 _115_
*155 _116_
*156 _117_
*157 _118_
*158 _119_
*159 _120_
*160 _121_
*161 _122_
*162 _123_
*163 _124_
*164 _125_
*165 _126_
*166 _127_
*167 _128_
*168 _129_
*169 _130_
*170 _131_
*171 _132_
*172 _133_
*173 _134_
*174 _135_
*175 _136_
*176 _137_
*177 _138_
*178 _139_
*179 _140_
*180 _141_
*181 _142_
*182 _143_
*183 _144_
*184 _145_
*185 _146_
*186 _147_
*187 _148_
*188 _149_
*189 _150_
*190 _151_
*191 _152_
*192 _153_
*193 _154_
*194 _155_
*195 _156_
*196 _157_
*197 _158_
*198 _159_
*199 _160_
*200 _161_
*201 _162_
*202 _163_
*203 _164_
*204 _165_
*205 _166_
*206 _167_
*207 _168_
*208 _169_
*209 _170_
*210 _171_
*211 _172_
*212 _173_
*213 _174_
*214 _175_
*215 _176_
*216 _177_
*217 _178_
*218 _179_
*219 _180_
*220 clknet_0_wb_clk_i
*221 clknet_1_0_0_wb_clk_i
*222 clknet_1_1_0_wb_clk_i
*223 clknet_2_0__leaf_wb_clk_i
*224 clknet_2_1__leaf_wb_clk_i
*225 clknet_2_2__leaf_wb_clk_i
*226 clknet_2_3__leaf_wb_clk_i
*227 net1
*228 net10
*229 net11
*230 net12
*231 net13
*232 net14
*233 net15
*234 net16
*235 net17
*236 net18
*237 net19
*238 net2
*239 net20
*240 net21
*241 net22
*242 net23
*243 net24
*244 net25
*245 net26
*246 net27
*247 net28
*248 net29
*249 net3
*250 net30
*251 net31
*252 net32
*253 net33
*254 net34
*255 net35
*256 net36
*257 net37
*258 net4
*259 net5
*260 net6
*261 net7
*262 net8
*263 net9
*264 pseudo\.controller\.next_state\[0\]
*265 pseudo\.controller\.next_state\[1\]
*266 pseudo\.controller\.next_state\[2\]
*267 pseudo\.controller\.state\[0\]
*268 pseudo\.controller\.state\[1\]
*269 pseudo\.controller\.state\[2\]
*270 pseudo\.controller\.switches0_equals_1
*271 pseudo\.datapath\.i\[0\]
*272 pseudo\.datapath\.i\[1\]
*273 pseudo\.datapath\.i\[2\]
*274 pseudo\.datapath\.i\[3\]
*275 pseudo\.datapath\.j\[0\]
*276 pseudo\.datapath\.j\[1\]
*277 pseudo\.datapath\.j\[2\]
*278 pseudo\.datapath\.j\[3\]
*279 pseudo\.datapath\.j\[4\]
*280 pseudo\.datapath\.j\[5\]
*281 pseudo\.datapath\.j\[6\]
*282 pseudo\.datapath\.j\[7\]
*283 pseudo\.datapath\.switch_shift\[1\]
*284 pseudo\.datapath\.switch_shift\[2\]
*285 pseudo\.datapath\.switch_shift\[3\]
*286 pseudo\.datapath\.switch_shift\[4\]
*287 pseudo\.datapath\.switch_shift\[5\]
*288 pseudo\.datapath\.switch_shift\[6\]
*289 pseudo\.datapath\.switch_shift\[7\]
*290 pseudo\.datapath\.tap0\[0\]
*291 pseudo\.datapath\.tap0\[1\]
*292 pseudo\.datapath\.tap0\[2\]
*293 pseudo\.datapath\.tap1\[0\]
*294 pseudo\.datapath\.tap1\[1\]
*295 pseudo\.datapath\.tap1\[2\]
*296 ANTENNA_1
*297 ANTENNA_10
*298 ANTENNA_11
*299 ANTENNA_2
*300 ANTENNA_3
*301 ANTENNA_4
*302 ANTENNA_5
*303 ANTENNA_6
*304 ANTENNA_7
*305 ANTENNA_8
*306 ANTENNA_9
*307 ANTENNA__188__A1
*308 ANTENNA__189__A1
*309 ANTENNA__191__I
*310 ANTENNA__192__I
*311 ANTENNA__193__A1
*312 ANTENNA__196__I
*313 ANTENNA__199__A1
*314 ANTENNA__200__A1
*315 ANTENNA__203__B1
*316 ANTENNA__204__A1
*317 ANTENNA__204__B1
*318 ANTENNA__212__I
*319 ANTENNA__217__A1
*320 ANTENNA__217__B
*321 ANTENNA__219__I
*322 ANTENNA__220__I
*323 ANTENNA__221__A1
*324 ANTENNA__224__A2
*325 ANTENNA__229__B
*326 ANTENNA__231__I
*327 ANTENNA__232__A2
*328 ANTENNA__236__A2
*329 ANTENNA__240__A1
*330 ANTENNA__241__A2
*331 ANTENNA__242__I
*332 ANTENNA__243__A1
*333 ANTENNA__245__I0
*334 ANTENNA__245__I1
*335 ANTENNA__246__I3
*336 ANTENNA__248__I3
*337 ANTENNA__251__I0
*338 ANTENNA__251__I1
*339 ANTENNA__254__I
*340 ANTENNA__258__I
*341 ANTENNA__259__B2
*342 ANTENNA__273__B2
*343 ANTENNA__280__B2
*344 ANTENNA__283__A2
*345 ANTENNA__288__B2
*346 ANTENNA__301__A4
*347 ANTENNA__315__B2
*348 ANTENNA__324__A2
*349 ANTENNA__333__I
*350 ANTENNA__335__A1
*351 ANTENNA__335__B
*352 ANTENNA__336__B
*353 ANTENNA__339__A1
*354 ANTENNA__340__I
*355 ANTENNA__341__B
*356 ANTENNA__342__I0
*357 ANTENNA__342__I1
*358 ANTENNA__342__S
*359 ANTENNA__343__S
*360 ANTENNA__345__I
*361 ANTENNA__346__I1
*362 ANTENNA__347__I0
*363 ANTENNA__347__S
*364 ANTENNA__349__I1
*365 ANTENNA__350__S
*366 ANTENNA__353__I
*367 ANTENNA__356__I1
*368 ANTENNA__359__I1
*369 ANTENNA__359__S
*370 ANTENNA__362__I0
*371 ANTENNA__362__I1
*372 ANTENNA__362__S
*373 ANTENNA__365__CLK
*374 ANTENNA__366__CLK
*375 ANTENNA__367__CLK
*376 ANTENNA__368__CLK
*377 ANTENNA__369__CLK
*378 ANTENNA__370__CLK
*379 ANTENNA__371__CLK
*380 ANTENNA__372__CLK
*381 ANTENNA__373__CLK
*382 ANTENNA__374__CLK
*383 ANTENNA__375__CLK
*384 ANTENNA__376__CLK
*385 ANTENNA__377__CLK
*386 ANTENNA__378__CLK
*387 ANTENNA__379__CLK
*388 ANTENNA__380__CLK
*389 ANTENNA__381__CLK
*390 ANTENNA__382__CLK
*391 ANTENNA__383__CLK
*392 ANTENNA__384__CLK
*393 ANTENNA__385__CLK
*394 ANTENNA__386__CLK
*395 ANTENNA__387__CLK
*396 ANTENNA__388__CLK
*397 ANTENNA__389__CLK
*398 ANTENNA__390__CLK
*399 ANTENNA__391__CLK
*400 ANTENNA__392__CLK
*401 ANTENNA__393__CLK
*402 ANTENNA__394__CLK
*403 ANTENNA__395__CLK
*404 ANTENNA__396__CLK
*405 ANTENNA__397__CLK
*406 ANTENNA__398__CLK
*407 ANTENNA__399__CLK
*408 ANTENNA__400__CLK
*409 ANTENNA__401__CLK
*410 ANTENNA__402__CLK
*411 ANTENNA_clkbuf_0_wb_clk_i_I
*412 ANTENNA_clkbuf_1_0_0_wb_clk_i_I
*413 ANTENNA_clkbuf_1_1_0_wb_clk_i_I
*414 ANTENNA_clkbuf_2_0__f_wb_clk_i_I
*415 ANTENNA_clkbuf_2_1__f_wb_clk_i_I
*416 ANTENNA_clkbuf_2_2__f_wb_clk_i_I
*417 ANTENNA_clkbuf_2_3__f_wb_clk_i_I
*418 ANTENNA_fanout31_I
*419 ANTENNA_fanout32_I
*420 ANTENNA_fanout33_I
*421 ANTENNA_fanout34_I
*422 ANTENNA_input10_I
*423 ANTENNA_input11_I
*424 ANTENNA_input12_I
*425 ANTENNA_input13_I
*426 ANTENNA_input14_I
*427 ANTENNA_input15_I
*428 ANTENNA_input16_I
*429 ANTENNA_input17_I
*430 ANTENNA_input1_I
*431 ANTENNA_input2_I
*432 ANTENNA_input3_I
*433 ANTENNA_input4_I
*434 ANTENNA_input5_I
*435 ANTENNA_input6_I
*436 ANTENNA_input7_I
*437 ANTENNA_input8_I
*438 ANTENNA_input9_I
*439 ANTENNA_output18_I
*440 ANTENNA_output19_I
*441 ANTENNA_output20_I
*442 ANTENNA_output22_I
*443 ANTENNA_output23_I
*444 ANTENNA_output24_I
*445 ANTENNA_output25_I
*446 ANTENNA_output26_I
*447 ANTENNA_wire27_I
*448 ANTENNA_wire28_I
*449 ANTENNA_wire29_I
*450 ANTENNA_wire30_I
*451 FILLER_0_0_1022
*452 FILLER_0_0_104
*453 FILLER_0_0_1056
*454 FILLER_0_0_1090
*455 FILLER_0_0_1124
*456 FILLER_0_0_1158
*457 FILLER_0_0_1192
*458 FILLER_0_0_1226
*459 FILLER_0_0_1260
*460 FILLER_0_0_1294
*461 FILLER_0_0_1328
*462 FILLER_0_0_1362
*463 FILLER_0_0_138
*464 FILLER_0_0_1396
*465 FILLER_0_0_1430
*466 FILLER_0_0_1464
*467 FILLER_0_0_1498
*468 FILLER_0_0_1532
*469 FILLER_0_0_1566
*470 FILLER_0_0_1600
*471 FILLER_0_0_1634
*472 FILLER_0_0_1668
*473 FILLER_0_0_1702
*474 FILLER_0_0_172
*475 FILLER_0_0_1736
*476 FILLER_0_0_1770
*477 FILLER_0_0_1804
*478 FILLER_0_0_1838
*479 FILLER_0_0_1872
*480 FILLER_0_0_1906
*481 FILLER_0_0_1940
*482 FILLER_0_0_1974
*483 FILLER_0_0_2
*484 FILLER_0_0_2008
*485 FILLER_0_0_2042
*486 FILLER_0_0_206
*487 FILLER_0_0_2076
*488 FILLER_0_0_2110
*489 FILLER_0_0_2144
*490 FILLER_0_0_2178
*491 FILLER_0_0_2212
*492 FILLER_0_0_2246
*493 FILLER_0_0_2280
*494 FILLER_0_0_2314
*495 FILLER_0_0_2348
*496 FILLER_0_0_2382
*497 FILLER_0_0_240
*498 FILLER_0_0_2416
*499 FILLER_0_0_2450
*500 FILLER_0_0_2484
*501 FILLER_0_0_2518
*502 FILLER_0_0_2552
*503 FILLER_0_0_2586
*504 FILLER_0_0_2620
*505 FILLER_0_0_2654
*506 FILLER_0_0_2688
*507 FILLER_0_0_2722
*508 FILLER_0_0_274
*509 FILLER_0_0_2756
*510 FILLER_0_0_2790
*511 FILLER_0_0_2824
*512 FILLER_0_0_2858
*513 FILLER_0_0_2892
*514 FILLER_0_0_2926
*515 FILLER_0_0_2960
*516 FILLER_0_0_2994
*517 FILLER_0_0_3028
*518 FILLER_0_0_3062
*519 FILLER_0_0_308
*520 FILLER_0_0_3096
*521 FILLER_0_0_3130
*522 FILLER_0_0_3164
*523 FILLER_0_0_3198
*524 FILLER_0_0_3232
*525 FILLER_0_0_3266
*526 FILLER_0_0_3300
*527 FILLER_0_0_3334
*528 FILLER_0_0_3368
*529 FILLER_0_0_3402
*530 FILLER_0_0_342
*531 FILLER_0_0_3436
*532 FILLER_0_0_3470
*533 FILLER_0_0_3504
*534 FILLER_0_0_3538
*535 FILLER_0_0_3572
*536 FILLER_0_0_36
*537 FILLER_0_0_3606
*538 FILLER_0_0_3640
*539 FILLER_0_0_3674
*540 FILLER_0_0_3708
*541 FILLER_0_0_3724
*542 FILLER_0_0_3732
*543 FILLER_0_0_3736
*544 FILLER_0_0_3756
*545 FILLER_0_0_376
*546 FILLER_0_0_3772
*547 FILLER_0_0_3776
*548 FILLER_0_0_3810
*549 FILLER_0_0_3844
*550 FILLER_0_0_3878
*551 FILLER_0_0_3912
*552 FILLER_0_0_3946
*553 FILLER_0_0_3980
*554 FILLER_0_0_4014
*555 FILLER_0_0_4048
*556 FILLER_0_0_4082
*557 FILLER_0_0_410
*558 FILLER_0_0_4116
*559 FILLER_0_0_4150
*560 FILLER_0_0_4184
*561 FILLER_0_0_4218
*562 FILLER_0_0_4252
*563 FILLER_0_0_4286
*564 FILLER_0_0_4320
*565 FILLER_0_0_4354
*566 FILLER_0_0_4388
*567 FILLER_0_0_4422
*568 FILLER_0_0_444
*569 FILLER_0_0_4456
*570 FILLER_0_0_4490
*571 FILLER_0_0_4524
*572 FILLER_0_0_4558
*573 FILLER_0_0_4592
*574 FILLER_0_0_4626
*575 FILLER_0_0_4660
*576 FILLER_0_0_4694
*577 FILLER_0_0_4728
*578 FILLER_0_0_4762
*579 FILLER_0_0_478
*580 FILLER_0_0_4796
*581 FILLER_0_0_4830
*582 FILLER_0_0_4864
*583 FILLER_0_0_4898
*584 FILLER_0_0_4932
*585 FILLER_0_0_4966
*586 FILLER_0_0_512
*587 FILLER_0_0_546
*588 FILLER_0_0_580
*589 FILLER_0_0_614
*590 FILLER_0_0_648
*591 FILLER_0_0_682
*592 FILLER_0_0_70
*593 FILLER_0_0_716
*594 FILLER_0_0_750
*595 FILLER_0_0_784
*596 FILLER_0_0_818
*597 FILLER_0_0_852
*598 FILLER_0_0_886
*599 FILLER_0_0_920
*600 FILLER_0_0_954
*601 FILLER_0_0_988
*602 FILLER_0_100_101
*603 FILLER_0_100_1011
*604 FILLER_0_100_1017
*605 FILLER_0_100_107
*606 FILLER_0_100_1081
*607 FILLER_0_100_1087
*608 FILLER_0_100_1151
*609 FILLER_0_100_1157
*610 FILLER_0_100_1221
*611 FILLER_0_100_1227
*612 FILLER_0_100_1291
*613 FILLER_0_100_1297
*614 FILLER_0_100_1361
*615 FILLER_0_100_1367
*616 FILLER_0_100_1431
*617 FILLER_0_100_1437
*618 FILLER_0_100_1501
*619 FILLER_0_100_1507
*620 FILLER_0_100_1571
*621 FILLER_0_100_1577
*622 FILLER_0_100_1641
*623 FILLER_0_100_1647
*624 FILLER_0_100_171
*625 FILLER_0_100_1711
*626 FILLER_0_100_1717
*627 FILLER_0_100_177
*628 FILLER_0_100_1781
*629 FILLER_0_100_1787
*630 FILLER_0_100_1851
*631 FILLER_0_100_1857
*632 FILLER_0_100_1921
*633 FILLER_0_100_1927
*634 FILLER_0_100_1991
*635 FILLER_0_100_1997
*636 FILLER_0_100_2
*637 FILLER_0_100_2061
*638 FILLER_0_100_2067
*639 FILLER_0_100_2131
*640 FILLER_0_100_2137
*641 FILLER_0_100_2201
*642 FILLER_0_100_2207
*643 FILLER_0_100_2271
*644 FILLER_0_100_2277
*645 FILLER_0_100_2341
*646 FILLER_0_100_2347
*647 FILLER_0_100_241
*648 FILLER_0_100_2411
*649 FILLER_0_100_2417
*650 FILLER_0_100_247
*651 FILLER_0_100_2481
*652 FILLER_0_100_2487
*653 FILLER_0_100_2551
*654 FILLER_0_100_2557
*655 FILLER_0_100_2621
*656 FILLER_0_100_2627
*657 FILLER_0_100_2691
*658 FILLER_0_100_2697
*659 FILLER_0_100_2761
*660 FILLER_0_100_2767
*661 FILLER_0_100_2831
*662 FILLER_0_100_2837
*663 FILLER_0_100_2901
*664 FILLER_0_100_2907
*665 FILLER_0_100_2971
*666 FILLER_0_100_2977
*667 FILLER_0_100_3041
*668 FILLER_0_100_3047
*669 FILLER_0_100_311
*670 FILLER_0_100_3111
*671 FILLER_0_100_3117
*672 FILLER_0_100_317
*673 FILLER_0_100_3181
*674 FILLER_0_100_3187
*675 FILLER_0_100_3251
*676 FILLER_0_100_3257
*677 FILLER_0_100_3321
*678 FILLER_0_100_3327
*679 FILLER_0_100_3391
*680 FILLER_0_100_3397
*681 FILLER_0_100_34
*682 FILLER_0_100_3461
*683 FILLER_0_100_3467
*684 FILLER_0_100_3531
*685 FILLER_0_100_3537
*686 FILLER_0_100_3601
*687 FILLER_0_100_3607
*688 FILLER_0_100_3671
*689 FILLER_0_100_3677
*690 FILLER_0_100_37
*691 FILLER_0_100_3741
*692 FILLER_0_100_3747
*693 FILLER_0_100_381
*694 FILLER_0_100_3811
*695 FILLER_0_100_3817
*696 FILLER_0_100_387
*697 FILLER_0_100_3881
*698 FILLER_0_100_3887
*699 FILLER_0_100_3951
*700 FILLER_0_100_3957
*701 FILLER_0_100_4021
*702 FILLER_0_100_4027
*703 FILLER_0_100_4091
*704 FILLER_0_100_4097
*705 FILLER_0_100_4161
*706 FILLER_0_100_4167
*707 FILLER_0_100_4231
*708 FILLER_0_100_4237
*709 FILLER_0_100_4301
*710 FILLER_0_100_4307
*711 FILLER_0_100_4371
*712 FILLER_0_100_4377
*713 FILLER_0_100_4441
*714 FILLER_0_100_4447
*715 FILLER_0_100_451
*716 FILLER_0_100_4511
*717 FILLER_0_100_4517
*718 FILLER_0_100_457
*719 FILLER_0_100_4581
*720 FILLER_0_100_4587
*721 FILLER_0_100_4651
*722 FILLER_0_100_4657
*723 FILLER_0_100_4721
*724 FILLER_0_100_4727
*725 FILLER_0_100_4791
*726 FILLER_0_100_4797
*727 FILLER_0_100_4861
*728 FILLER_0_100_4867
*729 FILLER_0_100_4931
*730 FILLER_0_100_4937
*731 FILLER_0_100_4969
*732 FILLER_0_100_521
*733 FILLER_0_100_527
*734 FILLER_0_100_591
*735 FILLER_0_100_597
*736 FILLER_0_100_661
*737 FILLER_0_100_667
*738 FILLER_0_100_731
*739 FILLER_0_100_737
*740 FILLER_0_100_801
*741 FILLER_0_100_807
*742 FILLER_0_100_871
*743 FILLER_0_100_877
*744 FILLER_0_100_941
*745 FILLER_0_100_947
*746 FILLER_0_101_1046
*747 FILLER_0_101_1052
*748 FILLER_0_101_1116
*749 FILLER_0_101_1122
*750 FILLER_0_101_1186
*751 FILLER_0_101_1192
*752 FILLER_0_101_1256
*753 FILLER_0_101_1262
*754 FILLER_0_101_1326
*755 FILLER_0_101_1332
*756 FILLER_0_101_136
*757 FILLER_0_101_1396
*758 FILLER_0_101_1402
*759 FILLER_0_101_142
*760 FILLER_0_101_1466
*761 FILLER_0_101_1472
*762 FILLER_0_101_1536
*763 FILLER_0_101_1542
*764 FILLER_0_101_1606
*765 FILLER_0_101_1612
*766 FILLER_0_101_1676
*767 FILLER_0_101_1682
*768 FILLER_0_101_1746
*769 FILLER_0_101_1752
*770 FILLER_0_101_1816
*771 FILLER_0_101_1822
*772 FILLER_0_101_1886
*773 FILLER_0_101_1892
*774 FILLER_0_101_1956
*775 FILLER_0_101_1962
*776 FILLER_0_101_2
*777 FILLER_0_101_2026
*778 FILLER_0_101_2032
*779 FILLER_0_101_206
*780 FILLER_0_101_2096
*781 FILLER_0_101_2102
*782 FILLER_0_101_212
*783 FILLER_0_101_2166
*784 FILLER_0_101_2172
*785 FILLER_0_101_2236
*786 FILLER_0_101_2242
*787 FILLER_0_101_2306
*788 FILLER_0_101_2312
*789 FILLER_0_101_2376
*790 FILLER_0_101_2382
*791 FILLER_0_101_2446
*792 FILLER_0_101_2452
*793 FILLER_0_101_2516
*794 FILLER_0_101_2522
*795 FILLER_0_101_2586
*796 FILLER_0_101_2592
*797 FILLER_0_101_2656
*798 FILLER_0_101_2662
*799 FILLER_0_101_2726
*800 FILLER_0_101_2732
*801 FILLER_0_101_276
*802 FILLER_0_101_2796
*803 FILLER_0_101_2802
*804 FILLER_0_101_282
*805 FILLER_0_101_2866
*806 FILLER_0_101_2872
*807 FILLER_0_101_2936
*808 FILLER_0_101_2942
*809 FILLER_0_101_3006
*810 FILLER_0_101_3012
*811 FILLER_0_101_3076
*812 FILLER_0_101_3082
*813 FILLER_0_101_3146
*814 FILLER_0_101_3152
*815 FILLER_0_101_3216
*816 FILLER_0_101_3222
*817 FILLER_0_101_3286
*818 FILLER_0_101_3292
*819 FILLER_0_101_3356
*820 FILLER_0_101_3362
*821 FILLER_0_101_3426
*822 FILLER_0_101_3432
*823 FILLER_0_101_346
*824 FILLER_0_101_3496
*825 FILLER_0_101_3502
*826 FILLER_0_101_352
*827 FILLER_0_101_3566
*828 FILLER_0_101_3572
*829 FILLER_0_101_3636
*830 FILLER_0_101_3642
*831 FILLER_0_101_3706
*832 FILLER_0_101_3712
*833 FILLER_0_101_3776
*834 FILLER_0_101_3782
*835 FILLER_0_101_3846
*836 FILLER_0_101_3852
*837 FILLER_0_101_3916
*838 FILLER_0_101_3922
*839 FILLER_0_101_3986
*840 FILLER_0_101_3992
*841 FILLER_0_101_4056
*842 FILLER_0_101_4062
*843 FILLER_0_101_4126
*844 FILLER_0_101_4132
*845 FILLER_0_101_416
*846 FILLER_0_101_4196
*847 FILLER_0_101_4202
*848 FILLER_0_101_422
*849 FILLER_0_101_4266
*850 FILLER_0_101_4272
*851 FILLER_0_101_4336
*852 FILLER_0_101_4342
*853 FILLER_0_101_4406
*854 FILLER_0_101_4412
*855 FILLER_0_101_4476
*856 FILLER_0_101_4482
*857 FILLER_0_101_4546
*858 FILLER_0_101_4552
*859 FILLER_0_101_4616
*860 FILLER_0_101_4622
*861 FILLER_0_101_4686
*862 FILLER_0_101_4692
*863 FILLER_0_101_4756
*864 FILLER_0_101_4762
*865 FILLER_0_101_4826
*866 FILLER_0_101_4832
*867 FILLER_0_101_486
*868 FILLER_0_101_4896
*869 FILLER_0_101_4902
*870 FILLER_0_101_492
*871 FILLER_0_101_4966
*872 FILLER_0_101_4972
*873 FILLER_0_101_556
*874 FILLER_0_101_562
*875 FILLER_0_101_626
*876 FILLER_0_101_632
*877 FILLER_0_101_66
*878 FILLER_0_101_696
*879 FILLER_0_101_702
*880 FILLER_0_101_72
*881 FILLER_0_101_766
*882 FILLER_0_101_772
*883 FILLER_0_101_836
*884 FILLER_0_101_842
*885 FILLER_0_101_906
*886 FILLER_0_101_912
*887 FILLER_0_101_976
*888 FILLER_0_101_982
*889 FILLER_0_102_101
*890 FILLER_0_102_1011
*891 FILLER_0_102_1017
*892 FILLER_0_102_107
*893 FILLER_0_102_1081
*894 FILLER_0_102_1087
*895 FILLER_0_102_1151
*896 FILLER_0_102_1157
*897 FILLER_0_102_1221
*898 FILLER_0_102_1227
*899 FILLER_0_102_1291
*900 FILLER_0_102_1297
*901 FILLER_0_102_1361
*902 FILLER_0_102_1367
*903 FILLER_0_102_1431
*904 FILLER_0_102_1437
*905 FILLER_0_102_1501
*906 FILLER_0_102_1507
*907 FILLER_0_102_1571
*908 FILLER_0_102_1577
*909 FILLER_0_102_1641
*910 FILLER_0_102_1647
*911 FILLER_0_102_171
*912 FILLER_0_102_1711
*913 FILLER_0_102_1717
*914 FILLER_0_102_177
*915 FILLER_0_102_1781
*916 FILLER_0_102_1787
*917 FILLER_0_102_1851
*918 FILLER_0_102_1857
*919 FILLER_0_102_1921
*920 FILLER_0_102_1927
*921 FILLER_0_102_1991
*922 FILLER_0_102_1997
*923 FILLER_0_102_2
*924 FILLER_0_102_2061
*925 FILLER_0_102_2067
*926 FILLER_0_102_2131
*927 FILLER_0_102_2137
*928 FILLER_0_102_2201
*929 FILLER_0_102_2207
*930 FILLER_0_102_2271
*931 FILLER_0_102_2277
*932 FILLER_0_102_2341
*933 FILLER_0_102_2347
*934 FILLER_0_102_241
*935 FILLER_0_102_2411
*936 FILLER_0_102_2417
*937 FILLER_0_102_247
*938 FILLER_0_102_2481
*939 FILLER_0_102_2487
*940 FILLER_0_102_2551
*941 FILLER_0_102_2557
*942 FILLER_0_102_2621
*943 FILLER_0_102_2627
*944 FILLER_0_102_2691
*945 FILLER_0_102_2697
*946 FILLER_0_102_2761
*947 FILLER_0_102_2767
*948 FILLER_0_102_2831
*949 FILLER_0_102_2837
*950 FILLER_0_102_2901
*951 FILLER_0_102_2907
*952 FILLER_0_102_2971
*953 FILLER_0_102_2977
*954 FILLER_0_102_3041
*955 FILLER_0_102_3047
*956 FILLER_0_102_311
*957 FILLER_0_102_3111
*958 FILLER_0_102_3117
*959 FILLER_0_102_317
*960 FILLER_0_102_3181
*961 FILLER_0_102_3187
*962 FILLER_0_102_3251
*963 FILLER_0_102_3257
*964 FILLER_0_102_3321
*965 FILLER_0_102_3327
*966 FILLER_0_102_3391
*967 FILLER_0_102_3397
*968 FILLER_0_102_34
*969 FILLER_0_102_3461
*970 FILLER_0_102_3467
*971 FILLER_0_102_3531
*972 FILLER_0_102_3537
*973 FILLER_0_102_3601
*974 FILLER_0_102_3607
*975 FILLER_0_102_3671
*976 FILLER_0_102_3677
*977 FILLER_0_102_37
*978 FILLER_0_102_3741
*979 FILLER_0_102_3747
*980 FILLER_0_102_381
*981 FILLER_0_102_3811
*982 FILLER_0_102_3817
*983 FILLER_0_102_387
*984 FILLER_0_102_3881
*985 FILLER_0_102_3887
*986 FILLER_0_102_3951
*987 FILLER_0_102_3957
*988 FILLER_0_102_4021
*989 FILLER_0_102_4027
*990 FILLER_0_102_4091
*991 FILLER_0_102_4097
*992 FILLER_0_102_4161
*993 FILLER_0_102_4167
*994 FILLER_0_102_4231
*995 FILLER_0_102_4237
*996 FILLER_0_102_4301
*997 FILLER_0_102_4307
*998 FILLER_0_102_4371
*999 FILLER_0_102_4377
*1000 FILLER_0_102_4441
*1001 FILLER_0_102_4447
*1002 FILLER_0_102_451
*1003 FILLER_0_102_4511
*1004 FILLER_0_102_4517
*1005 FILLER_0_102_457
*1006 FILLER_0_102_4581
*1007 FILLER_0_102_4587
*1008 FILLER_0_102_4651
*1009 FILLER_0_102_4657
*1010 FILLER_0_102_4721
*1011 FILLER_0_102_4727
*1012 FILLER_0_102_4791
*1013 FILLER_0_102_4797
*1014 FILLER_0_102_4861
*1015 FILLER_0_102_4867
*1016 FILLER_0_102_4931
*1017 FILLER_0_102_4937
*1018 FILLER_0_102_4969
*1019 FILLER_0_102_4973
*1020 FILLER_0_102_521
*1021 FILLER_0_102_527
*1022 FILLER_0_102_591
*1023 FILLER_0_102_597
*1024 FILLER_0_102_661
*1025 FILLER_0_102_667
*1026 FILLER_0_102_731
*1027 FILLER_0_102_737
*1028 FILLER_0_102_801
*1029 FILLER_0_102_807
*1030 FILLER_0_102_871
*1031 FILLER_0_102_877
*1032 FILLER_0_102_941
*1033 FILLER_0_102_947
*1034 FILLER_0_103_1046
*1035 FILLER_0_103_1052
*1036 FILLER_0_103_1116
*1037 FILLER_0_103_1122
*1038 FILLER_0_103_1186
*1039 FILLER_0_103_1192
*1040 FILLER_0_103_1256
*1041 FILLER_0_103_1262
*1042 FILLER_0_103_1326
*1043 FILLER_0_103_1332
*1044 FILLER_0_103_136
*1045 FILLER_0_103_1396
*1046 FILLER_0_103_1402
*1047 FILLER_0_103_142
*1048 FILLER_0_103_1466
*1049 FILLER_0_103_1472
*1050 FILLER_0_103_1536
*1051 FILLER_0_103_1542
*1052 FILLER_0_103_1606
*1053 FILLER_0_103_1612
*1054 FILLER_0_103_1676
*1055 FILLER_0_103_1682
*1056 FILLER_0_103_1746
*1057 FILLER_0_103_1752
*1058 FILLER_0_103_1816
*1059 FILLER_0_103_1822
*1060 FILLER_0_103_1886
*1061 FILLER_0_103_1892
*1062 FILLER_0_103_1956
*1063 FILLER_0_103_1962
*1064 FILLER_0_103_2
*1065 FILLER_0_103_2026
*1066 FILLER_0_103_2032
*1067 FILLER_0_103_206
*1068 FILLER_0_103_2096
*1069 FILLER_0_103_2102
*1070 FILLER_0_103_212
*1071 FILLER_0_103_2166
*1072 FILLER_0_103_2172
*1073 FILLER_0_103_2236
*1074 FILLER_0_103_2242
*1075 FILLER_0_103_2306
*1076 FILLER_0_103_2312
*1077 FILLER_0_103_2376
*1078 FILLER_0_103_2382
*1079 FILLER_0_103_2446
*1080 FILLER_0_103_2452
*1081 FILLER_0_103_2516
*1082 FILLER_0_103_2522
*1083 FILLER_0_103_2586
*1084 FILLER_0_103_2592
*1085 FILLER_0_103_2656
*1086 FILLER_0_103_2662
*1087 FILLER_0_103_2726
*1088 FILLER_0_103_2732
*1089 FILLER_0_103_276
*1090 FILLER_0_103_2796
*1091 FILLER_0_103_2802
*1092 FILLER_0_103_282
*1093 FILLER_0_103_2866
*1094 FILLER_0_103_2872
*1095 FILLER_0_103_2936
*1096 FILLER_0_103_2942
*1097 FILLER_0_103_3006
*1098 FILLER_0_103_3012
*1099 FILLER_0_103_3076
*1100 FILLER_0_103_3082
*1101 FILLER_0_103_3146
*1102 FILLER_0_103_3152
*1103 FILLER_0_103_3216
*1104 FILLER_0_103_3222
*1105 FILLER_0_103_3286
*1106 FILLER_0_103_3292
*1107 FILLER_0_103_3356
*1108 FILLER_0_103_3362
*1109 FILLER_0_103_3426
*1110 FILLER_0_103_3432
*1111 FILLER_0_103_346
*1112 FILLER_0_103_3496
*1113 FILLER_0_103_3502
*1114 FILLER_0_103_352
*1115 FILLER_0_103_3566
*1116 FILLER_0_103_3572
*1117 FILLER_0_103_3636
*1118 FILLER_0_103_3642
*1119 FILLER_0_103_3706
*1120 FILLER_0_103_3712
*1121 FILLER_0_103_3776
*1122 FILLER_0_103_3782
*1123 FILLER_0_103_3846
*1124 FILLER_0_103_3852
*1125 FILLER_0_103_3916
*1126 FILLER_0_103_3922
*1127 FILLER_0_103_3986
*1128 FILLER_0_103_3992
*1129 FILLER_0_103_4056
*1130 FILLER_0_103_4062
*1131 FILLER_0_103_4126
*1132 FILLER_0_103_4132
*1133 FILLER_0_103_416
*1134 FILLER_0_103_4196
*1135 FILLER_0_103_4202
*1136 FILLER_0_103_422
*1137 FILLER_0_103_4266
*1138 FILLER_0_103_4272
*1139 FILLER_0_103_4336
*1140 FILLER_0_103_4342
*1141 FILLER_0_103_4406
*1142 FILLER_0_103_4412
*1143 FILLER_0_103_4476
*1144 FILLER_0_103_4482
*1145 FILLER_0_103_4546
*1146 FILLER_0_103_4552
*1147 FILLER_0_103_4616
*1148 FILLER_0_103_4622
*1149 FILLER_0_103_4686
*1150 FILLER_0_103_4692
*1151 FILLER_0_103_4756
*1152 FILLER_0_103_4762
*1153 FILLER_0_103_4826
*1154 FILLER_0_103_4832
*1155 FILLER_0_103_486
*1156 FILLER_0_103_4896
*1157 FILLER_0_103_4902
*1158 FILLER_0_103_492
*1159 FILLER_0_103_4966
*1160 FILLER_0_103_4972
*1161 FILLER_0_103_556
*1162 FILLER_0_103_562
*1163 FILLER_0_103_626
*1164 FILLER_0_103_632
*1165 FILLER_0_103_66
*1166 FILLER_0_103_696
*1167 FILLER_0_103_702
*1168 FILLER_0_103_72
*1169 FILLER_0_103_766
*1170 FILLER_0_103_772
*1171 FILLER_0_103_836
*1172 FILLER_0_103_842
*1173 FILLER_0_103_906
*1174 FILLER_0_103_912
*1175 FILLER_0_103_976
*1176 FILLER_0_103_982
*1177 FILLER_0_104_101
*1178 FILLER_0_104_1011
*1179 FILLER_0_104_1017
*1180 FILLER_0_104_107
*1181 FILLER_0_104_1081
*1182 FILLER_0_104_1087
*1183 FILLER_0_104_1151
*1184 FILLER_0_104_1157
*1185 FILLER_0_104_1221
*1186 FILLER_0_104_1227
*1187 FILLER_0_104_1291
*1188 FILLER_0_104_1297
*1189 FILLER_0_104_1361
*1190 FILLER_0_104_1367
*1191 FILLER_0_104_1431
*1192 FILLER_0_104_1437
*1193 FILLER_0_104_1501
*1194 FILLER_0_104_1507
*1195 FILLER_0_104_1571
*1196 FILLER_0_104_1577
*1197 FILLER_0_104_1641
*1198 FILLER_0_104_1647
*1199 FILLER_0_104_171
*1200 FILLER_0_104_1711
*1201 FILLER_0_104_1717
*1202 FILLER_0_104_177
*1203 FILLER_0_104_1781
*1204 FILLER_0_104_1787
*1205 FILLER_0_104_1851
*1206 FILLER_0_104_1857
*1207 FILLER_0_104_1921
*1208 FILLER_0_104_1927
*1209 FILLER_0_104_1991
*1210 FILLER_0_104_1997
*1211 FILLER_0_104_2
*1212 FILLER_0_104_2061
*1213 FILLER_0_104_2067
*1214 FILLER_0_104_2131
*1215 FILLER_0_104_2137
*1216 FILLER_0_104_2201
*1217 FILLER_0_104_2207
*1218 FILLER_0_104_2271
*1219 FILLER_0_104_2277
*1220 FILLER_0_104_2341
*1221 FILLER_0_104_2347
*1222 FILLER_0_104_241
*1223 FILLER_0_104_2411
*1224 FILLER_0_104_2417
*1225 FILLER_0_104_247
*1226 FILLER_0_104_2481
*1227 FILLER_0_104_2487
*1228 FILLER_0_104_2551
*1229 FILLER_0_104_2557
*1230 FILLER_0_104_2621
*1231 FILLER_0_104_2627
*1232 FILLER_0_104_2691
*1233 FILLER_0_104_2697
*1234 FILLER_0_104_2761
*1235 FILLER_0_104_2767
*1236 FILLER_0_104_2831
*1237 FILLER_0_104_2837
*1238 FILLER_0_104_2901
*1239 FILLER_0_104_2907
*1240 FILLER_0_104_2971
*1241 FILLER_0_104_2977
*1242 FILLER_0_104_3041
*1243 FILLER_0_104_3047
*1244 FILLER_0_104_311
*1245 FILLER_0_104_3111
*1246 FILLER_0_104_3117
*1247 FILLER_0_104_317
*1248 FILLER_0_104_3181
*1249 FILLER_0_104_3187
*1250 FILLER_0_104_3251
*1251 FILLER_0_104_3257
*1252 FILLER_0_104_3321
*1253 FILLER_0_104_3327
*1254 FILLER_0_104_3391
*1255 FILLER_0_104_3397
*1256 FILLER_0_104_34
*1257 FILLER_0_104_3461
*1258 FILLER_0_104_3467
*1259 FILLER_0_104_3531
*1260 FILLER_0_104_3537
*1261 FILLER_0_104_3601
*1262 FILLER_0_104_3607
*1263 FILLER_0_104_3671
*1264 FILLER_0_104_3677
*1265 FILLER_0_104_37
*1266 FILLER_0_104_3741
*1267 FILLER_0_104_3747
*1268 FILLER_0_104_381
*1269 FILLER_0_104_3811
*1270 FILLER_0_104_3817
*1271 FILLER_0_104_387
*1272 FILLER_0_104_3881
*1273 FILLER_0_104_3887
*1274 FILLER_0_104_3951
*1275 FILLER_0_104_3957
*1276 FILLER_0_104_4021
*1277 FILLER_0_104_4027
*1278 FILLER_0_104_4091
*1279 FILLER_0_104_4097
*1280 FILLER_0_104_4161
*1281 FILLER_0_104_4167
*1282 FILLER_0_104_4231
*1283 FILLER_0_104_4237
*1284 FILLER_0_104_4301
*1285 FILLER_0_104_4307
*1286 FILLER_0_104_4371
*1287 FILLER_0_104_4377
*1288 FILLER_0_104_4441
*1289 FILLER_0_104_4447
*1290 FILLER_0_104_451
*1291 FILLER_0_104_4511
*1292 FILLER_0_104_4517
*1293 FILLER_0_104_457
*1294 FILLER_0_104_4581
*1295 FILLER_0_104_4587
*1296 FILLER_0_104_4651
*1297 FILLER_0_104_4657
*1298 FILLER_0_104_4721
*1299 FILLER_0_104_4727
*1300 FILLER_0_104_4791
*1301 FILLER_0_104_4797
*1302 FILLER_0_104_4861
*1303 FILLER_0_104_4867
*1304 FILLER_0_104_4931
*1305 FILLER_0_104_4937
*1306 FILLER_0_104_4969
*1307 FILLER_0_104_4973
*1308 FILLER_0_104_521
*1309 FILLER_0_104_527
*1310 FILLER_0_104_591
*1311 FILLER_0_104_597
*1312 FILLER_0_104_661
*1313 FILLER_0_104_667
*1314 FILLER_0_104_731
*1315 FILLER_0_104_737
*1316 FILLER_0_104_801
*1317 FILLER_0_104_807
*1318 FILLER_0_104_871
*1319 FILLER_0_104_877
*1320 FILLER_0_104_941
*1321 FILLER_0_104_947
*1322 FILLER_0_105_1046
*1323 FILLER_0_105_1052
*1324 FILLER_0_105_1116
*1325 FILLER_0_105_1122
*1326 FILLER_0_105_1186
*1327 FILLER_0_105_1192
*1328 FILLER_0_105_1256
*1329 FILLER_0_105_1262
*1330 FILLER_0_105_1326
*1331 FILLER_0_105_1332
*1332 FILLER_0_105_136
*1333 FILLER_0_105_1396
*1334 FILLER_0_105_1402
*1335 FILLER_0_105_142
*1336 FILLER_0_105_1466
*1337 FILLER_0_105_1472
*1338 FILLER_0_105_1536
*1339 FILLER_0_105_1542
*1340 FILLER_0_105_1606
*1341 FILLER_0_105_1612
*1342 FILLER_0_105_1676
*1343 FILLER_0_105_1682
*1344 FILLER_0_105_1746
*1345 FILLER_0_105_1752
*1346 FILLER_0_105_1816
*1347 FILLER_0_105_1822
*1348 FILLER_0_105_1886
*1349 FILLER_0_105_1892
*1350 FILLER_0_105_1956
*1351 FILLER_0_105_1962
*1352 FILLER_0_105_2
*1353 FILLER_0_105_2026
*1354 FILLER_0_105_2032
*1355 FILLER_0_105_206
*1356 FILLER_0_105_2096
*1357 FILLER_0_105_2102
*1358 FILLER_0_105_212
*1359 FILLER_0_105_2166
*1360 FILLER_0_105_2172
*1361 FILLER_0_105_2236
*1362 FILLER_0_105_2242
*1363 FILLER_0_105_2306
*1364 FILLER_0_105_2312
*1365 FILLER_0_105_2376
*1366 FILLER_0_105_2382
*1367 FILLER_0_105_2446
*1368 FILLER_0_105_2452
*1369 FILLER_0_105_2516
*1370 FILLER_0_105_2522
*1371 FILLER_0_105_2586
*1372 FILLER_0_105_2592
*1373 FILLER_0_105_2656
*1374 FILLER_0_105_2662
*1375 FILLER_0_105_2726
*1376 FILLER_0_105_2732
*1377 FILLER_0_105_276
*1378 FILLER_0_105_2796
*1379 FILLER_0_105_2802
*1380 FILLER_0_105_282
*1381 FILLER_0_105_2866
*1382 FILLER_0_105_2872
*1383 FILLER_0_105_2936
*1384 FILLER_0_105_2942
*1385 FILLER_0_105_3006
*1386 FILLER_0_105_3012
*1387 FILLER_0_105_3076
*1388 FILLER_0_105_3082
*1389 FILLER_0_105_3146
*1390 FILLER_0_105_3152
*1391 FILLER_0_105_3216
*1392 FILLER_0_105_3222
*1393 FILLER_0_105_3286
*1394 FILLER_0_105_3292
*1395 FILLER_0_105_3356
*1396 FILLER_0_105_3362
*1397 FILLER_0_105_3426
*1398 FILLER_0_105_3432
*1399 FILLER_0_105_346
*1400 FILLER_0_105_3496
*1401 FILLER_0_105_3502
*1402 FILLER_0_105_352
*1403 FILLER_0_105_3566
*1404 FILLER_0_105_3572
*1405 FILLER_0_105_3636
*1406 FILLER_0_105_3642
*1407 FILLER_0_105_3706
*1408 FILLER_0_105_3712
*1409 FILLER_0_105_3776
*1410 FILLER_0_105_3782
*1411 FILLER_0_105_3846
*1412 FILLER_0_105_3852
*1413 FILLER_0_105_3916
*1414 FILLER_0_105_3922
*1415 FILLER_0_105_3986